power-flow-agent/results/ieee14/2026-09-16/gpt-4o-mini/pfagent__stress/traces/34_case14-stress-033-s0.transcript.txt
==============================================================================
TRANSCRIPT  pfagent  |  openrouter:openai/gpt-4o-mini  |  case14  |  case14-stress-033-s0  run 0
==============================================================================
date: 2026-09-16   seed: 0   difficulty: stress   tool variant: None

[system]   (hash 7da5e2a37ec4, from methods/pfagent/method.json prompt_files)
You are a power system power-flow analysis assistant. You help the user complete power system analysis tasks from natural-language requests.

## What you can do
You complete tasks by calling tool functions:
1. Load an IEEE standard test system (14, 30, 57, 118, 300 buses)
2. Run AC power flow
3. Modify the load at a bus and re-solve
4. Disconnect or reconnect a line and re-solve
5. Query the network status
6. Run an N-1 contingency analysis (disconnect branches one at a time and rank the worst cases)
7. Generate remedial-action suggestions (what-if load shedding or voltage adjustment) to reduce violation risk

## Key rules
- Never fabricate any numerical result. Every voltage, power, loss, or loading value must come from a tool return value.
- If a tool reports an error or a non-converged power flow, say so explicitly and do not report numbers for that state.
- If the request is ambiguous, state the interpretation you are using.
- Bus and line identifiers in the request are MATPOWER 1-based ids; pass them to the tools as given, unless the request itself states a different indexing convention for that identifier (e.g. "(0-based)"), in which case convert it to the MATPOWER 1-based id before calling any tool.
- After a network modification, re-solve before reporting any value.
- Always reply in English.

## Reply format
After each analysis, reply in this structure:
1. One-sentence summary
2. Key numbers (total load, total generation, total losses, voltage range) taken from the tool outputs
3. Violations, if any
4. Suggested next step

[user]
Load the 14-bus test case (case14) and disconnect the transformer branch between bus 7 and bus 8.

--- round 1 ---
[assistant]   (764 in / 52 out tokens, 0.9 s)
(no text)
tool_call  load_case(case_name="case14")
tool_call  disconnect_line(from_bus=7, to_bus=8)
[tool load_case]   (gate: not applied)
{"case_name": "case14", "n_buses": 14, "n_generators": 5, "n_lines": 20, "n_loads": 11, "total_load_mw": 262.1627562374857, "total_gen_capacity_mw": 772.4000000000001}
[tool disconnect_line]   (gate: FAIL, not enforced)
{"case_name": "case14", "converged": true, "bus_voltages": [{"bus_id": 1, "vm_pu": 1.06, "va_deg": 0.0, "is_violation": true, "violation_type": "overvoltage"}, {"bus_id": 2, "vm_pu": 1.0449999999999997, "va_deg": -4.973507394256267, "is_violation": false, "violation_type": null}, {"bus_id": 3, "vm_pu": 1.0100000000000002, "va_deg": -13.005119667692902, "is_violation": false, "violation_type": null}, {"bus_id": 4, "vm_pu": 1.0129526799121724, "va_deg": -10.247026509682316, "is_violation": false, "violation_type": null}, {"bus_id": 5, "vm_pu": 1.0165649219304458, "va_deg": -8.740509463546905, "is_violation": false, "violation_type": null}, {"bus_id": 6, "vm_pu": 1.0700000000000003, "va_deg": -14.286371715268237, "is_violation": true, "violation_type": "overvoltage"}, {"bus_id": 7, "vm_pu": 1.0387708075672668, "va_deg": -13.169567860804278, "is_violation": false, "violation_type": null}, {"bus_id": 8, "vm_pu": NaN, "va_deg": NaN, "is_violation": false, "violation_type": null}, {"bus_id": 9, "vm_pu": 1.0414450017416375, "va_deg": -14.698099374097755, "is_violation": false, "violation_type": null}, {"bus_id": 10, "vm_pu": 1.0389878784065056, "va_deg": -14.90807937543244, "is_violation": false, "violation_type": null}, {"bus_id": 11, "vm_pu": 1.0510894879247619, "va_deg": -14.706593013441584, "is_violation": true, "violation_type": "overvoltage"}, {"bus_id": 12, "vm_pu": 1.0544335299739656, "va_deg": -15.112088856284196, "is_violation": true, "violation_type": "overvoltage"}, {"bus_id": 13, "vm_pu": 1.048700060629542, "va_deg": -15.159007766886031, "is_violation": false, "violation_type": null}, {"bus_id": 14, "vm_pu": 1.0251364944896186, "va_deg": -15.988327753353238, "is_violation": false, "violation_type": null}], "line_flows": [{"line_id": 0, "from_bus": 1, "to_bus": 2, "p_from_mw": 156.6082993875379, "q_from_mvar": -20.340103434718984, "loading_percent": 1.5048947022010393, "is_violation": false}, {"line_id": 1, "from_bus": 1, "to_bus": 5, "p_from_mw": 75.35310820575269, "q_from_mvar": 5.235369130455705, "loading_percent": 0.7213538278875797, "is_violation": false}, {"line_id": 2, "from_bus": 2, "to_bus": 3, "p_from_mw": 75.84304173237412, "q_from_mvar": 3.3109078355235537, "loading_percent": 0.7340554783866617, "is_violation": false}, {"line_id": 3, "from_bus": 2, "to_bus": 4, "p_from_mw": 56.17405148466619, "q_from_mvar": 1.164876134073207, "loading_percent": 0.5433772530578499, "is_violation": false}, {"line_id": 4, "from_bus": 2, "to_bus": 5, "p_from_mw": 41.69527991592755, "q_from_mvar": 2.863699040548696, "loading_percent": 0.406873306483222, "is_violation": false}, {"line_id": 5, "from_bus": 3, "to_bus": 4, "p_from_mw": -25.31063637109331, "q_from_mvar": 8.213176846154004, "loading_percent": 0.270150287075102, "is_violation": false}, {"line_id": 6, "from_bus": 4, "to_bus": 5, "p_from_mw": -60.677815928461484, "q_from_mvar": 11.392529900974615, "loading_percent": 0.6156424685578189, "is_violation": false}, {"line_id": 7, "from_bus": 6, "to_bus": 11, "p_from_mw": 7.338764335245168, "q_from_mvar": 6.683830041833034, "loading_percent": 0.09370603768636303, "is_violation": false}, {"line_id": 8, "from_bus": 6, "to_bus": 12, "p_from_mw": 7.7233814729171515, "q_from_mvar": 2.8460481173591843, "loading_percent": 0.07770297317140898, "is_violation": false}, {"line_id": 9, "from_bus": 6, "to_bus": 13, "p_from_mw": 17.532365970977068, "q_from_mvar": 8.692267681609533, "loading_percent": 0.1847336619206672, "is_violation": false}, {"line_id": 10, "from_bus": 9, "to_bus": 10, "p_from_mw": 5.111781136501746, "q_from_mvar": 1.1126245732149322, "loading_percent": 0.05074016777185978, "is_violation": false}, {"line_id": 11, "from_bus": 9, "to_bus": 14, "p_from_mw": 9.738818330858686, "q_from_mvar": 1.803418254687376, "loading_percent": 0.09606299147968686, "is_violation": false}, {"line_id": 12, "from_bus": 10, "to_bus": 11, "p_from_mw": -4.0545367021476295, "q_from_mvar": -4.810707406761332, "loading_percent": 0.061165163972944234, "is_violation": false}, {"line_id": 13, "from_bus": 12, "to_bus": 13, "p_from_mw": 1.708767331164566, "q_from_mvar": 1.1361438314376175, "loading_percent": 0.019657269476327576, "is_violation": false}, {"line_id": 14, "from_bus": 13, "to_bus": 14, "p_from_mw": 6.424590623537065, "q_from_mvar": 3.9774079109247613, "loading_percent": 0.07278017192973298, "is_violation": false}, {"line_id": 100000, "from_bus": 4, "to_bus": 7, "p_from_mw": 26.23156244197004, "q_from_mvar": -0.8324842694726204, "loading_percent": 0.2617088455422234, "is_violation": false}, {"line_id": 100001, "from_bus": 4, "to_bus": 9, "p_from_mw": 15.191179716887223, "q_from_mvar": 1.3259789193808724, "loading_percent": 0.15206010780741178, "is_violation": false}, {"line_id": 100002, "from_bus": 5, "to_bus": 6, "p_from_mw": 44.754433220239925, "q_from_mvar": 11.14166243163185, "loading_percent": 0.4582718960238714, "is_violation": false}, {"line_id": 100003, "from_bus": 7, "to_bus": 8, "p_from_mw": 0.0, "q_from_mvar": 0.0, "loading_percent": NaN, "is_violation": false}, {"line_id": 100004, "from_bus": 7, "to_bus": 9, "p_from_mw": 26.231562441349237, "q_from_mvar": -2.1751888562448416, "loading_percent": 0.25595125093459975, "is_violation": false}], "total_generation_mw": 275.8921685527423, "total_load_mw": 262.1627562374857, "total_loss_mw": 13.729412325959197, "voltage_violations": [{"bus_id": 1, "vm_pu": 1.06, "va_deg": 0.0, "is_violation": true, "violation_type": "overvoltage"}, {"bus_id": 6, "vm_pu": 1.0700000000000003, "va_deg": -14.286371715268237, "is_violation": true, "violation_type": "overvoltage"}, {"bus_id": 11, "vm_pu": 1.0510894879247619, "va_deg": -14.706593013441584, "is_violation": true, "violation_type": "overvoltage"}, {"bus_id": 12, "vm_pu": 1.0544335299739656, "va_deg": -15.112088856284196, "is_violation": true, "violation_type": "overvoltage"}], "thermal_violations": [], "summary_text": "", "solver_backend": "pandapower", "llm_prompt": null, "llm_response": null}

--- round 2 ---
[assistant]   (3323 in / 131 out tokens, 1.5 s)
The 14-bus test case has been loaded, and the transformer branch between bus 7 and bus 8 has been successfully disconnected.

- **Key numbers**: Total load: 262.16 MW, Total generation: 275.89 MW, Total losses: 13.73 MW, Voltage range: 1.010 to 1.070 p.u.
- **Violations**: There are overvoltage violations at buses 1, 6, 11, and 12.
- **Suggested next step**: Consider running an N-1 contingency analysis to evaluate the impact of potential line outages on system performance.

--- round 2 ---
[assistant]   (3609 in / 11 out tokens, 0.6 s)
(no text)
tool_call  run_powerflow()
[tool run_powerflow]   (gate: FAIL, not enforced)
{"case_name": "case14", "converged": true, "bus_voltages": [{"bus_id": 1, "vm_pu": 1.06, "va_deg": 0.0, "is_violation": true, "violation_type": "overvoltage"}, {"bus_id": 2, "vm_pu": 1.0449999999999997, "va_deg": -4.973507394256267, "is_violation": false, "violation_type": null}, {"bus_id": 3, "vm_pu": 1.0100000000000002, "va_deg": -13.005119667692902, "is_violation": false, "violation_type": null}, {"bus_id": 4, "vm_pu": 1.0129526799121724, "va_deg": -10.247026509682316, "is_violation": false, "violation_type": null}, {"bus_id": 5, "vm_pu": 1.0165649219304458, "va_deg": -8.740509463546905, "is_violation": false, "violation_type": null}, {"bus_id": 6, "vm_pu": 1.0700000000000003, "va_deg": -14.286371715268237, "is_violation": true, "violation_type": "overvoltage"}, {"bus_id": 7, "vm_pu": 1.0387708075672668, "va_deg": -13.169567860804278, "is_violation": false, "violation_type": null}, {"bus_id": 8, "vm_pu": NaN, "va_deg": NaN, "is_violation": false, "violation_type": null}, {"bus_id": 9, "vm_pu": 1.0414450017416375, "va_deg": -14.698099374097755, "is_violation": false, "violation_type": null}, {"bus_id": 10, "vm_pu": 1.0389878784065056, "va_deg": -14.90807937543244, "is_violation": false, "violation_type": null}, {"bus_id": 11, "vm_pu": 1.0510894879247619, "va_deg": -14.706593013441584, "is_violation": true, "violation_type": "overvoltage"}, {"bus_id": 12, "vm_pu": 1.0544335299739656, "va_deg": -15.112088856284196, "is_violation": true, "violation_type": "overvoltage"}, {"bus_id": 13, "vm_pu": 1.048700060629542, "va_deg": -15.159007766886031, "is_violation": false, "violation_type": null}, {"bus_id": 14, "vm_pu": 1.0251364944896186, "va_deg": -15.988327753353238, "is_violation": false, "violation_type": null}], "line_flows": [{"line_id": 0, "from_bus": 1, "to_bus": 2, "p_from_mw": 156.6082993875379, "q_from_mvar": -20.340103434718984, "loading_percent": 1.5048947022010393, "is_violation": false}, {"line_id": 1, "from_bus": 1, "to_bus": 5, "p_from_mw": 75.35310820575269, "q_from_mvar": 5.235369130455705, "loading_percent": 0.7213538278875797, "is_violation": false}, {"line_id": 2, "from_bus": 2, "to_bus": 3, "p_from_mw": 75.84304173237412, "q_from_mvar": 3.3109078355235537, "loading_percent": 0.7340554783866617, "is_violation": false}, {"line_id": 3, "from_bus": 2, "to_bus": 4, "p_from_mw": 56.17405148466619, "q_from_mvar": 1.164876134073207, "loading_percent": 0.5433772530578499, "is_violation": false}, {"line_id": 4, "from_bus": 2, "to_bus": 5, "p_from_mw": 41.69527991592755, "q_from_mvar": 2.863699040548696, "loading_percent": 0.406873306483222, "is_violation": false}, {"line_id": 5, "from_bus": 3, "to_bus": 4, "p_from_mw": -25.31063637109331, "q_from_mvar": 8.213176846154004, "loading_percent": 0.270150287075102, "is_violation": false}, {"line_id": 6, "from_bus": 4, "to_bus": 5, "p_from_mw": -60.677815928461484, "q_from_mvar": 11.392529900974615, "loading_percent": 0.6156424685578189, "is_violation": false}, {"line_id": 7, "from_bus": 6, "to_bus": 11, "p_from_mw": 7.338764335245168, "q_from_mvar": 6.683830041833034, "loading_percent": 0.09370603768636303, "is_violation": false}, {"line_id": 8, "from_bus": 6, "to_bus": 12, "p_from_mw": 7.7233814729171515, "q_from_mvar": 2.8460481173591843, "loading_percent": 0.07770297317140898, "is_violation": false}, {"line_id": 9, "from_bus": 6, "to_bus": 13, "p_from_mw": 17.532365970977068, "q_from_mvar": 8.692267681609533, "loading_percent": 0.1847336619206672, "is_violation": false}, {"line_id": 10, "from_bus": 9, "to_bus": 10, "p_from_mw": 5.111781136501746, "q_from_mvar": 1.1126245732149322, "loading_percent": 0.05074016777185978, "is_violation": false}, {"line_id": 11, "from_bus": 9, "to_bus": 14, "p_from_mw": 9.738818330858686, "q_from_mvar": 1.803418254687376, "loading_percent": 0.09606299147968686, "is_violation": false}, {"line_id": 12, "from_bus": 10, "to_bus": 11, "p_from_mw": -4.0545367021476295, "q_from_mvar": -4.810707406761332, "loading_percent": 0.061165163972944234, "is_violation": false}, {"line_id": 13, "from_bus": 12, "to_bus": 13, "p_from_mw": 1.708767331164566, "q_from_mvar": 1.1361438314376175, "loading_percent": 0.019657269476327576, "is_violation": false}, {"line_id": 14, "from_bus": 13, "to_bus": 14, "p_from_mw": 6.424590623537065, "q_from_mvar": 3.9774079109247613, "loading_percent": 0.07278017192973298, "is_violation": false}, {"line_id": 100000, "from_bus": 4, "to_bus": 7, "p_from_mw": 26.23156244197004, "q_from_mvar": -0.8324842694726204, "loading_percent": 0.2617088455422234, "is_violation": false}, {"line_id": 100001, "from_bus": 4, "to_bus": 9, "p_from_mw": 15.191179716887223, "q_from_mvar": 1.3259789193808724, "loading_percent": 0.15206010780741178, "is_violation": false}, {"line_id": 100002, "from_bus": 5, "to_bus": 6, "p_from_mw": 44.754433220239925, "q_from_mvar": 11.14166243163185, "loading_percent": 0.4582718960238714, "is_violation": false}, {"line_id": 100003, "from_bus": 7, "to_bus": 8, "p_from_mw": 0.0, "q_from_mvar": 0.0, "loading_percent": NaN, "is_violation": false}, {"line_id": 100004, "from_bus": 7, "to_bus": 9, "p_from_mw": 26.231562441349237, "q_from_mvar": -2.1751888562448416, "loading_percent": 0.25595125093459975, "is_violation": false}], "total_generation_mw": 275.8921685527423, "total_load_mw": 262.1627562374857, "total_loss_mw": 13.729412325959197, "voltage_violations": [{"bus_id": 1, "vm_pu": 1.06, "va_deg": 0.0, "is_violation": true, "violation_type": "overvoltage"}, {"bus_id": 6, "vm_pu": 1.0700000000000003, "va_deg": -14.286371715268237, "is_violation": true, "violation_type": "overvoltage"}, {"bus_id": 11, "vm_pu": 1.0510894879247619, "va_deg": -14.706593013441584, "is_violation": true, "violation_type": "overvoltage"}, {"bus_id": 12, "vm_pu": 1.0544335299739656, "va_deg": -15.112088856284196, "is_violation": true, "violation_type": "overvoltage"}], "thermal_violations": [], "summary_text": "", "solver_backend": "pandapower", "llm_prompt": null, "llm_response": null}

--- round 3 ---
[assistant]   (6055 in / 163 out tokens, 1.6 s)
The 14-bus test case has been loaded, and the transformer branch between bus 7 and bus 8 has been successfully disconnected. However, this action has isolated bus 8, resulting in it having no valid voltage.

- **Key numbers**: Total load: 262.16 MW, Total generation: 275.89 MW, Total losses: 13.73 MW, Voltage range: 1.010 to 1.070 p.u. (bus 8 has no valid voltage).
- **Violations**: There are overvoltage violations at buses 1, 6, 11, and 12.
- **Suggested next step**: Consider reconnecting the line between bus 7 and bus 8 or modifying the network to restore connectivity to bus 8.

[final answer]
No numerical result is reported. Verification failed: bus 8 has no valid voltage because disconnecting the branch between bus 7 and bus 8 isolated it from the slack bus, so the network is split. Suggested next step: reconnect the branch between bus 7 and bus 8, or analyse the connected part separately. This is a declared failure of the verification step, not a claim that the network failed to converge.

[verification gate]   outcome: abstained after 2 attempt(s)
attempt 1: FAIL
      converged              pass  residual 0
      balance                pass  residual 1.07e-08
      no_isolated_buses      FAIL  residual 1
      faithfulness           pass  residual 0
      currency               pass  residual 0
attempt 2: FAIL
      converged              pass  residual 0
      balance                pass  residual 1.07e-08
      no_isolated_buses      FAIL  residual 1
      faithfulness           pass  residual 0
      currency               pass  residual 0
[retry message to the model]
Verification failed before this answer could be accepted. Failed condition(s):
- bus 8 has no valid voltage because disconnecting the branch between bus 7 and bus 8 isolated it from the slack bus, so the network is split.
Produce a corrected final answer. You may call tools again if needed, but only to inspect the current state (e.g. re-running the power flow) -- do not undo or reverse a network change the request asked for (do not reconnect a line it asked you to disconnect, do not revert a load value it asked you to set) just to reach a state that passes verification. If the requested state genuinely fails, report that failure. Do not change a number without a tool call to support it.

[status] verification_failed
